#MODFLOW RIV PACKAGE CREATED BY SWR1
        22         0
        21         0          STRESS PERIOD     1 TIME STEP     6 SWR1 TIME STEP    24 TOTIM   1.00    
         1         1         1    1.537000        92000.00        1.530000              REACH 000001
         1         2         1    1.537000        92000.00        1.530000              REACH 000002
         1         3         1    1.537000        92000.00        1.530000              REACH 000003
         1         4         1    1.537000        92000.00        1.530000              REACH 000004
         1         5         1    1.537000        92000.00        1.530000              REACH 000005
         1         6         1    1.537000        92000.00        1.530000              REACH 000006
         1         2         2    1.230880        2926.737       0.3048000              REACH 000007
         1         2         3    1.230880        2951.485       0.3048000              REACH 000008
         1         4         2    1.230880        2757.264       0.3048000              REACH 000009
         1         4         3    1.230880        3707.416       0.3048000              REACH 000010
         1         3         3    1.230880        829.1394       0.3048000              REACH 000011
         1         3         3    1.230880        2072.848       0.3048000              REACH 000012
         1         3         3    1.230880        1243.709       0.3048000              REACH 000013
         1         3         4    1.230880        3096.990       0.3048000              REACH 000014
         1         3         5   0.9958389        1858.061       0.3048000              REACH 000015
         1         4         5   0.9958389        1858.061       0.3048000              REACH 000016
         1         5         5   0.5006961        1266.404       0.2000000              REACH 000017
         2         5         5   0.5006961        187.9618       0.2000000              REACH 000017
         1         5         6   0.5006955        2912.666       0.1500000              REACH 000018
         2         5         6   0.5006955        2631.181       0.1500000              REACH 000018
         1         6         5   0.7004294        364.8500       0.3048000              REACH 000019
        21         0          STRESS PERIOD     2 TIME STEP     6 SWR1 TIME STEP    24 TOTIM   2.00    
         1         1         1    1.536000        92000.00        1.530000              REACH 000001
         1         2         1    1.536000        92000.00        1.530000              REACH 000002
         1         3         1    1.536000        92000.00        1.530000              REACH 000003
         1         4         1    1.536000        92000.00        1.530000              REACH 000004
         1         5         1    1.536000        92000.00        1.530000              REACH 000005
         1         6         1    1.536000        92000.00        1.530000              REACH 000006
         1         2         2    1.225939        2926.737       0.3048000              REACH 000007
         1         2         3    1.225939        2951.485       0.3048000              REACH 000008
         1         4         2    1.225939        2757.264       0.3048000              REACH 000009
         1         4         3    1.225939        3707.416       0.3048000              REACH 000010
         1         3         3    1.225939        829.1394       0.3048000              REACH 000011
         1         3         3    1.225939        2072.848       0.3048000              REACH 000012
         1         3         3    1.225939        1243.709       0.3048000              REACH 000013
         1         3         4    1.225939        3096.990       0.3048000              REACH 000014
         1         3         5   0.9916863        1858.061       0.3048000              REACH 000015
         1         4         5   0.9916863        1858.061       0.3048000              REACH 000016
         1         5         5   0.5005647        1266.404       0.2000000              REACH 000017
         2         5         5   0.5005647        187.9618       0.2000000              REACH 000017
         1         5         6   0.5005644        2912.666       0.1500000              REACH 000018
         2         5         6   0.5005644        2631.181       0.1500000              REACH 000018
         1         6         5   0.7003969        364.8500       0.3048000              REACH 000019
        21         0          STRESS PERIOD     3 TIME STEP     6 SWR1 TIME STEP    24 TOTIM   3.00    
         1         1         1    1.535000        92000.00        1.530000              REACH 000001
         1         2         1    1.535000        92000.00        1.530000              REACH 000002
         1         3         1    1.535000        92000.00        1.530000              REACH 000003
         1         4         1    1.535000        92000.00        1.530000              REACH 000004
         1         5         1    1.535000        92000.00        1.530000              REACH 000005
         1         6         1    1.535000        92000.00        1.530000              REACH 000006
         1         2         2    1.213621        2926.737       0.3048000              REACH 000007
         1         2         3    1.213621        2951.485       0.3048000              REACH 000008
         1         4         2    1.213621        2757.264       0.3048000              REACH 000009
         1         4         3    1.213621        3707.416       0.3048000              REACH 000010
         1         3         3    1.213621        829.1394       0.3048000              REACH 000011
         1         3         3    1.213621        2072.848       0.3048000              REACH 000012
         1         3         3    1.213621        1243.709       0.3048000              REACH 000013
         1         3         4    1.213621        3096.990       0.3048000              REACH 000014
         1         3         5   0.9875277        1858.061       0.3048000              REACH 000015
         1         4         5   0.9875277        1858.061       0.3048000              REACH 000016
         1         5         5   0.5004421        1266.404       0.2000000              REACH 000017
         2         5         5   0.5004421        187.9618       0.2000000              REACH 000017
         1         5         6   0.5004418        2912.666       0.1500000              REACH 000018
         2         5         6   0.5004418        2631.181       0.1500000              REACH 000018
         1         6         5   0.7003542        364.8500       0.3048000              REACH 000019
        21         0          STRESS PERIOD     4 TIME STEP     6 SWR1 TIME STEP    24 TOTIM   4.00    
         1         1         1    1.535000        92000.00        1.530000              REACH 000001
         1         2         1    1.535000        92000.00        1.530000              REACH 000002
         1         3         1    1.535000        92000.00        1.530000              REACH 000003
         1         4         1    1.535000        92000.00        1.530000              REACH 000004
         1         5         1    1.535000        92000.00        1.530000              REACH 000005
         1         6         1    1.535000        92000.00        1.530000              REACH 000006
         1         2         2    1.202887        2926.737       0.3048000              REACH 000007
         1         2         3    1.202887        2951.485       0.3048000              REACH 000008
         1         4         2    1.202887        2757.264       0.3048000              REACH 000009
         1         4         3    1.202887        3707.416       0.3048000              REACH 000010
         1         3         3    1.202887        829.1394       0.3048000              REACH 000011
         1         3         3    1.202887        2072.848       0.3048000              REACH 000012
         1         3         3    1.202887        1243.709       0.3048000              REACH 000013
         1         3         4    1.202887        3096.990       0.3048000              REACH 000014
         1         3         5   0.9833631        1858.061       0.3048000              REACH 000015
         1         4         5   0.9833631        1858.061       0.3048000              REACH 000016
         1         5         5   0.5003277        1266.404       0.2000000              REACH 000017
         2         5         5   0.5003277        187.9618       0.2000000              REACH 000017
         1         5         6   0.5003276        2912.666       0.1500000              REACH 000018
         2         5         6   0.5003276        2631.181       0.1500000              REACH 000018
         1         6         5   0.7003129        364.8500       0.3048000              REACH 000019
        21         0          STRESS PERIOD     5 TIME STEP     6 SWR1 TIME STEP    24 TOTIM   5.00    
         1         1         1    1.535000        92000.00        1.530000              REACH 000001
         1         2         1    1.535000        92000.00        1.530000              REACH 000002
         1         3         1    1.535000        92000.00        1.530000              REACH 000003
         1         4         1    1.535000        92000.00        1.530000              REACH 000004
         1         5         1    1.535000        92000.00        1.530000              REACH 000005
         1         6         1    1.535000        92000.00        1.530000              REACH 000006
         1         2         2    1.193132        2926.737       0.3048000              REACH 000007
         1         2         3    1.193132        2951.485       0.3048000              REACH 000008
         1         4         2    1.193132        2757.264       0.3048000              REACH 000009
         1         4         3    1.193132        3707.416       0.3048000              REACH 000010
         1         3         3    1.193132        829.1394       0.3048000              REACH 000011
         1         3         3    1.193132        2072.848       0.3048000              REACH 000012
         1         3         3    1.193132        1243.709       0.3048000              REACH 000013
         1         3         4    1.193132        3096.990       0.3048000              REACH 000014
         1         3         5   0.9791929        1858.061       0.3048000              REACH 000015
         1         4         5   0.9791929        1858.061       0.3048000              REACH 000016
         1         5         5   0.5002145        1266.404       0.2000000              REACH 000017
         2         5         5   0.5002145        187.9618       0.2000000              REACH 000017
         1         5         6   0.5002145        2912.666       0.1500000              REACH 000018
         2         5         6   0.5002145        2631.181       0.1500000              REACH 000018
         1         6         5   0.7002739        364.8500       0.3048000              REACH 000019
        21         0          STRESS PERIOD     6 TIME STEP     6 SWR1 TIME STEP    24 TOTIM   6.00    
         1         1         1    1.535000        92000.00        1.530000              REACH 000001
         1         2         1    1.535000        92000.00        1.530000              REACH 000002
         1         3         1    1.535000        92000.00        1.530000              REACH 000003
         1         4         1    1.535000        92000.00        1.530000              REACH 000004
         1         5         1    1.535000        92000.00        1.530000              REACH 000005
         1         6         1    1.535000        92000.00        1.530000              REACH 000006
         1         2         2    1.184071        2926.737       0.3048000              REACH 000007
         1         2         3    1.184071        2951.485       0.3048000              REACH 000008
         1         4         2    1.184071        2757.264       0.3048000              REACH 000009
         1         4         3    1.184071        3707.416       0.3048000              REACH 000010
         1         3         3    1.184071        829.1394       0.3048000              REACH 000011
         1         3         3    1.184071        2072.848       0.3048000              REACH 000012
         1         3         3    1.184071        1243.709       0.3048000              REACH 000013
         1         3         4    1.184071        3096.990       0.3048000              REACH 000014
         1         3         5   0.9750184        1858.061       0.3048000              REACH 000015
         1         4         5   0.9750184        1858.061       0.3048000              REACH 000016
         1         5         5   0.5001266        1266.404       0.2000000              REACH 000017
         2         5         5   0.5001266        187.9618       0.2000000              REACH 000017
         1         5         6   0.5001266        2912.666       0.1500000              REACH 000018
         2         5         6   0.5001266        2631.181       0.1500000              REACH 000018
         1         6         5   0.7002336        364.8500       0.3048000              REACH 000019
        21         0          STRESS PERIOD     7 TIME STEP     6 SWR1 TIME STEP    24 TOTIM   7.00    
         1         1         1    1.536000        92000.00        1.530000              REACH 000001
         1         2         1    1.536000        92000.00        1.530000              REACH 000002
         1         3         1    1.536000        92000.00        1.530000              REACH 000003
         1         4         1    1.536000        92000.00        1.530000              REACH 000004
         1         5         1    1.536000        92000.00        1.530000              REACH 000005
         1         6         1    1.536000        92000.00        1.530000              REACH 000006
         1         2         2    1.184566        2926.737       0.3048000              REACH 000007
         1         2         3    1.184566        2951.485       0.3048000              REACH 000008
         1         4         2    1.184566        2757.264       0.3048000              REACH 000009
         1         4         3    1.184566        3707.416       0.3048000              REACH 000010
         1         3         3    1.184566        829.1394       0.3048000              REACH 000011
         1         3         3    1.184566        2072.848       0.3048000              REACH 000012
         1         3         3    1.184566        1243.709       0.3048000              REACH 000013
         1         3         4    1.184566        3096.990       0.3048000              REACH 000014
         1         3         5   0.9712226        1858.061       0.3048000              REACH 000015
         1         4         5   0.9712226        1858.061       0.3048000              REACH 000016
         1         5         5   0.4998642        1266.404       0.2000000              REACH 000017
         2         5         5   0.4998642        187.9618       0.2000000              REACH 000017
         1         5         6   0.4998642        2912.666       0.1500000              REACH 000018
         2         5         6   0.4998642        2631.181       0.1500000              REACH 000018
         1         6         5   0.7001823        364.8500       0.3048000              REACH 000019
        21         0          STRESS PERIOD     8 TIME STEP     6 SWR1 TIME STEP    24 TOTIM   8.00    
         1         1         1    1.535000        92000.00        1.530000              REACH 000001
         1         2         1    1.535000        92000.00        1.530000              REACH 000002
         1         3         1    1.535000        92000.00        1.530000              REACH 000003
         1         4         1    1.535000        92000.00        1.530000              REACH 000004
         1         5         1    1.535000        92000.00        1.530000              REACH 000005
         1         6         1    1.535000        92000.00        1.530000              REACH 000006
         1         2         2    1.175280        2926.737       0.3048000              REACH 000007
         1         2         3    1.175280        2951.485       0.3048000              REACH 000008
         1         4         2    1.175280        2757.264       0.3048000              REACH 000009
         1         4         3    1.175280        3707.416       0.3048000              REACH 000010
         1         3         3    1.175280        829.1394       0.3048000              REACH 000011
         1         3         3    1.175280        2072.848       0.3048000              REACH 000012
         1         3         3    1.175280        1243.709       0.3048000              REACH 000013
         1         3         4    1.175280        3096.990       0.3048000              REACH 000014
         1         3         5   0.9670438        1858.061       0.3048000              REACH 000015
         1         4         5   0.9670438        1858.061       0.3048000              REACH 000016
         1         5         5   0.4992880        1266.404       0.2000000              REACH 000017
         2         5         5   0.4992880        187.9618       0.2000000              REACH 000017
         1         5         6   0.4992880        2912.666       0.1500000              REACH 000018
         2         5         6   0.4992880        2631.181       0.1500000              REACH 000018
         1         6         5   0.7001389        364.8500       0.3048000              REACH 000019
        21         0          STRESS PERIOD     9 TIME STEP     6 SWR1 TIME STEP    24 TOTIM   9.00    
         1         1         1    1.535000        92000.00        1.530000              REACH 000001
         1         2         1    1.535000        92000.00        1.530000              REACH 000002
         1         3         1    1.535000        92000.00        1.530000              REACH 000003
         1         4         1    1.535000        92000.00        1.530000              REACH 000004
         1         5         1    1.535000        92000.00        1.530000              REACH 000005
         1         6         1    1.535000        92000.00        1.530000              REACH 000006
         1         2         2    1.166700        2926.737       0.3048000              REACH 000007
         1         2         3    1.166700        2951.485       0.3048000              REACH 000008
         1         4         2    1.166700        2757.264       0.3048000              REACH 000009
         1         4         3    1.166700        3707.416       0.3048000              REACH 000010
         1         3         3    1.166700        829.1394       0.3048000              REACH 000011
         1         3         3    1.166700        2072.848       0.3048000              REACH 000012
         1         3         3    1.166700        1243.709       0.3048000              REACH 000013
         1         3         4    1.166700        3096.990       0.3048000              REACH 000014
         1         3         5   0.9628638        1858.061       0.3048000              REACH 000015
         1         4         5   0.9628638        1858.061       0.3048000              REACH 000016
         1         5         5   0.4985248        1266.404       0.2000000              REACH 000017
         2         5         5   0.4985248        187.9618       0.2000000              REACH 000017
         1         5         6   0.4985248        2912.666       0.1500000              REACH 000018
         2         5         6   0.4985248        2631.181       0.1500000              REACH 000018
         1         6         5   0.7000956        364.8500       0.3048000              REACH 000019
        21         0          STRESS PERIOD    10 TIME STEP     6 SWR1 TIME STEP    24 TOTIM   10.0    
         1         1         1    1.535000        92000.00        1.530000              REACH 000001
         1         2         1    1.535000        92000.00        1.530000              REACH 000002
         1         3         1    1.535000        92000.00        1.530000              REACH 000003
         1         4         1    1.535000        92000.00        1.530000              REACH 000004
         1         5         1    1.535000        92000.00        1.530000              REACH 000005
         1         6         1    1.535000        92000.00        1.530000              REACH 000006
         1         2         2    1.158622        2926.737       0.3048000              REACH 000007
         1         2         3    1.158622        2951.485       0.3048000              REACH 000008
         1         4         2    1.158622        2757.264       0.3048000              REACH 000009
         1         4         3    1.158622        3707.416       0.3048000              REACH 000010
         1         3         3    1.158622        829.1394       0.3048000              REACH 000011
         1         3         3    1.158622        2072.848       0.3048000              REACH 000012
         1         3         3    1.158622        1243.709       0.3048000              REACH 000013
         1         3         4    1.158622        3096.990       0.3048000              REACH 000014
         1         3         5   0.9586832        1858.061       0.3048000              REACH 000015
         1         4         5   0.9586832        1858.061       0.3048000              REACH 000016
         1         5         5   0.4978221        1266.404       0.2000000              REACH 000017
         2         5         5   0.4978221        187.9618       0.2000000              REACH 000017
         1         5         6   0.4978221        2912.666       0.1500000              REACH 000018
         2         5         6   0.4978221        2631.181       0.1500000              REACH 000018
         1         6         5   0.7000368        364.8500       0.3048000              REACH 000019
        21         0          STRESS PERIOD    11 TIME STEP     6 SWR1 TIME STEP    24 TOTIM   11.0    
         1         1         1    1.535000        92000.00        1.530000              REACH 000001
         1         2         1    1.535000        92000.00        1.530000              REACH 000002
         1         3         1    1.535000        92000.00        1.530000              REACH 000003
         1         4         1    1.535000        92000.00        1.530000              REACH 000004
         1         5         1    1.535000        92000.00        1.530000              REACH 000005
         1         6         1    1.535000        92000.00        1.530000              REACH 000006
         1         2         2    1.150911        2926.737       0.3048000              REACH 000007
         1         2         3    1.150911        2951.485       0.3048000              REACH 000008
         1         4         2    1.150911        2757.264       0.3048000              REACH 000009
         1         4         3    1.150911        3707.416       0.3048000              REACH 000010
         1         3         3    1.150911        829.1394       0.3048000              REACH 000011
         1         3         3    1.150911        2072.848       0.3048000              REACH 000012
         1         3         3    1.150911        1243.709       0.3048000              REACH 000013
         1         3         4    1.150911        3096.990       0.3048000              REACH 000014
         1         3         5   0.9545024        1858.061       0.3048000              REACH 000015
         1         4         5   0.9545024        1858.061       0.3048000              REACH 000016
         1         5         5   0.4967382        1266.404       0.2000000              REACH 000017
         2         5         5   0.4967382        187.9618       0.2000000              REACH 000017
         1         5         6   0.4967382        2912.666       0.1500000              REACH 000018
         2         5         6   0.4967382        2631.181       0.1500000              REACH 000018
         1         6         5   0.6998384        364.8500       0.3048000              REACH 000019
        21         0          STRESS PERIOD    12 TIME STEP     6 SWR1 TIME STEP    24 TOTIM   12.0    
         1         1         1    1.535000        92000.00        1.530000              REACH 000001
         1         2         1    1.535000        92000.00        1.530000              REACH 000002
         1         3         1    1.535000        92000.00        1.530000              REACH 000003
         1         4         1    1.535000        92000.00        1.530000              REACH 000004
         1         5         1    1.535000        92000.00        1.530000              REACH 000005
         1         6         1    1.535000        92000.00        1.530000              REACH 000006
         1         2         2    1.143513        2926.737       0.3048000              REACH 000007
         1         2         3    1.143513        2951.485       0.3048000              REACH 000008
         1         4         2    1.143513        2757.264       0.3048000              REACH 000009
         1         4         3    1.143513        3707.416       0.3048000              REACH 000010
         1         3         3    1.143513        829.1394       0.3048000              REACH 000011
         1         3         3    1.143513        2072.848       0.3048000              REACH 000012
         1         3         3    1.143513        1243.709       0.3048000              REACH 000013
         1         3         4    1.143513        3096.990       0.3048000              REACH 000014
         1         3         5   0.9503219        1858.061       0.3048000              REACH 000015
         1         4         5   0.9503219        1858.061       0.3048000              REACH 000016
         1         5         5   0.4957958        1266.404       0.2000000              REACH 000017
         2         5         5   0.4957958        187.9618       0.2000000              REACH 000017
         1         5         6   0.4957958        2912.666       0.1500000              REACH 000018
         2         5         6   0.4957958        2631.181       0.1500000              REACH 000018
         1         6         5   0.6991563        364.8500       0.3048000              REACH 000019
        21         0          STRESS PERIOD    13 TIME STEP     6 SWR1 TIME STEP    24 TOTIM   13.0    
         1         1         1    1.535000        92000.00        1.530000              REACH 000001
         1         2         1    1.535000        92000.00        1.530000              REACH 000002
         1         3         1    1.535000        92000.00        1.530000              REACH 000003
         1         4         1    1.535000        92000.00        1.530000              REACH 000004
         1         5         1    1.535000        92000.00        1.530000              REACH 000005
         1         6         1    1.535000        92000.00        1.530000              REACH 000006
         1         2         2    1.136388        2926.737       0.3048000              REACH 000007
         1         2         3    1.136388        2951.485       0.3048000              REACH 000008
         1         4         2    1.136388        2757.264       0.3048000              REACH 000009
         1         4         3    1.136388        3707.416       0.3048000              REACH 000010
         1         3         3    1.136388        829.1394       0.3048000              REACH 000011
         1         3         3    1.136388        2072.848       0.3048000              REACH 000012
         1         3         3    1.136388        1243.709       0.3048000              REACH 000013
         1         3         4    1.136388        3096.990       0.3048000              REACH 000014
         1         3         5   0.9461424        1858.061       0.3048000              REACH 000015
         1         4         5   0.9461424        1858.061       0.3048000              REACH 000016
         1         5         5   0.4947959        1266.404       0.2000000              REACH 000017
         2         5         5   0.4947959        187.9618       0.2000000              REACH 000017
         1         5         6   0.4947959        2912.666       0.1500000              REACH 000018
         2         5         6   0.4947959        2631.181       0.1500000              REACH 000018
         1         6         5   0.6980592        364.8500       0.3048000              REACH 000019
        21         0          STRESS PERIOD    14 TIME STEP     6 SWR1 TIME STEP    24 TOTIM   14.0    
         1         1         1    1.535000        92000.00        1.530000              REACH 000001
         1         2         1    1.535000        92000.00        1.530000              REACH 000002
         1         3         1    1.535000        92000.00        1.530000              REACH 000003
         1         4         1    1.535000        92000.00        1.530000              REACH 000004
         1         5         1    1.535000        92000.00        1.530000              REACH 000005
         1         6         1    1.535000        92000.00        1.530000              REACH 000006
         1         2         2    1.129503        2926.737       0.3048000              REACH 000007
         1         2         3    1.129503        2951.485       0.3048000              REACH 000008
         1         4         2    1.129503        2757.264       0.3048000              REACH 000009