#MODFLOW RIV PACKAGE CREATED BY SWR1
        22         0
        21         0          STRESS PERIOD     1 TIME STEP     6 SWR1 TIME STEP    24 TOTIM   1.00    
         1         1         1    1.537000        92000.00        1.530000              REACH 000001
         1         2         1    1.537000        92000.00        1.530000              REACH 000002
         1         3         1    1.537000        92000.00        1.530000              REACH 000003
         1         4         1    1.537000        92000.00        1.530000              REACH 000004
         1         5         1    1.537000        92000.00        1.530000              REACH 000005
         1         6         1    1.537000        92000.00        1.530000              REACH 000006
         1         2         2    1.230880        2926.737       0.3048000              REACH 000007
         1         2         3    1.230880        2951.485       0.3048000              REACH 000008
         1         4         2    1.230880        2757.264       0.3048000              REACH 000009
         1         4         3    1.230880        3707.416       0.3048000              REACH 000010
         1         3         3    1.230880        829.1394       0.3048000              REACH 000011
         1         3         3    1.230880        2072.848       0.3048000              REACH 000012
         1         3         3    1.230880        1243.709       0.3048000              REACH 000013
         1         3         4    1.230880        3096.990       0.3048000              REACH 000014
         1         3         5   0.9958389        1858.061       0.3048000              REACH 000015
         1         4         5   0.9958389        1858.061       0.3048000              REACH 000016
         1         5         5   0.5007032        1266.404       0.2000000              REACH 000017
         2         5         5   0.5007032        187.9618       0.2000000              REACH 000017
         1         5         6   0.5007027        2912.666       0.1500000              REACH 000018
         2         5         6   0.5007027        2631.181       0.1500000              REACH 000018
         1         6         5   0.7004278        364.8500       0.3048000              REACH 000019
        21         0          STRESS PERIOD     2 TIME STEP     6 SWR1 TIME STEP    24 TOTIM   2.00    
         1         1         1    1.536000        92000.00        1.530000              REACH 000001
         1         2         1    1.536000        92000.00        1.530000              REACH 000002
         1         3         1    1.536000        92000.00        1.530000              REACH 000003
         1         4         1    1.536000        92000.00        1.530000              REACH 000004
         1         5         1    1.536000        92000.00        1.530000              REACH 000005
         1         6         1    1.536000        92000.00        1.530000              REACH 000006
         1         2         2    1.225937        2926.737       0.3048000              REACH 000007
         1         2         3    1.225937        2951.485       0.3048000              REACH 000008
         1         4         2    1.225937        2757.264       0.3048000              REACH 000009
         1         4         3    1.225937        3707.416       0.3048000              REACH 000010
         1         3         3    1.225937        829.1394       0.3048000              REACH 000011
         1         3         3    1.225937        2072.848       0.3048000              REACH 000012
         1         3         3    1.225937        1243.709       0.3048000              REACH 000013
         1         3         4    1.225937        3096.990       0.3048000              REACH 000014
         1         3         5   0.9916857        1858.061       0.3048000              REACH 000015
         1         4         5   0.9916857        1858.061       0.3048000              REACH 000016
         1         5         5   0.5005669        1266.404       0.2000000              REACH 000017
         2         5         5   0.5005669        187.9618       0.2000000              REACH 000017
         1         5         6   0.5005667        2912.666       0.1500000              REACH 000018
         2         5         6   0.5005667        2631.181       0.1500000              REACH 000018
         1         6         5   0.7003972        364.8500       0.3048000              REACH 000019
        21         0          STRESS PERIOD     3 TIME STEP     6 SWR1 TIME STEP    24 TOTIM   3.00    
         1         1         1    1.535000        92000.00        1.530000              REACH 000001
         1         2         1    1.535000        92000.00        1.530000              REACH 000002
         1         3         1    1.535000        92000.00        1.530000              REACH 000003
         1         4         1    1.535000        92000.00        1.530000              REACH 000004
         1         5         1    1.535000        92000.00        1.530000              REACH 000005
         1         6         1    1.535000        92000.00        1.530000              REACH 000006
         1         2         2    1.213619        2926.737       0.3048000              REACH 000007
         1         2         3    1.213619        2951.485       0.3048000              REACH 000008
         1         4         2    1.213619        2757.264       0.3048000              REACH 000009
         1         4         3    1.213619        3707.416       0.3048000              REACH 000010
         1         3         3    1.213619        829.1394       0.3048000              REACH 000011
         1         3         3    1.213619        2072.848       0.3048000              REACH 000012
         1         3         3    1.213619        1243.709       0.3048000              REACH 000013
         1         3         4    1.213619        3096.990       0.3048000              REACH 000014
         1         3         5   0.9875272        1858.061       0.3048000              REACH 000015
         1         4         5   0.9875272        1858.061       0.3048000              REACH 000016
         1         5         5   0.5004376        1266.404       0.2000000              REACH 000017
         2         5         5   0.5004376        187.9618       0.2000000              REACH 000017
         1         5         6   0.5004373        2912.666       0.1500000              REACH 000018
         2         5         6   0.5004373        2631.181       0.1500000              REACH 000018
         1         6         5   0.7003537        364.8500       0.3048000              REACH 000019
        21         0          STRESS PERIOD     4 TIME STEP     6 SWR1 TIME STEP    24 TOTIM   4.00    
         1         1         1    1.535000        92000.00        1.530000              REACH 000001
         1         2         1    1.535000        92000.00        1.530000              REACH 000002
         1         3         1    1.535000        92000.00        1.530000              REACH 000003
         1         4         1    1.535000        92000.00        1.530000              REACH 000004
         1         5         1    1.535000        92000.00        1.530000              REACH 000005
         1         6         1    1.535000        92000.00        1.530000              REACH 000006
         1         2         2    1.202887        2926.737       0.3048000              REACH 000007
         1         2         3    1.202887        2951.485       0.3048000              REACH 000008
         1         4         2    1.202887        2757.264       0.3048000              REACH 000009
         1         4         3    1.202887        3707.416       0.3048000              REACH 000010
         1         3         3    1.202887        829.1394       0.3048000              REACH 000011
         1         3         3    1.202887        2072.848       0.3048000              REACH 000012
         1         3         3    1.202887        1243.709       0.3048000              REACH 000013
         1         3         4    1.202887        3096.990       0.3048000              REACH 000014
         1         3         5   0.9833626        1858.061       0.3048000              REACH 000015
         1         4         5   0.9833626        1858.061       0.3048000              REACH 000016
         1         5         5   0.5003367        1266.404       0.2000000              REACH 000017
         2         5         5   0.5003367        187.9618       0.2000000              REACH 000017
         1         5         6   0.5003366        2912.666       0.1500000              REACH 000018
         2         5         6   0.5003366        2631.181       0.1500000              REACH 000018
         1         6         5   0.7003164        364.8500       0.3048000              REACH 000019
        21         0          STRESS PERIOD     5 TIME STEP     6 SWR1 TIME STEP    24 TOTIM   5.00    
         1         1         1    1.535000        92000.00        1.530000              REACH 000001
         1         2         1    1.535000        92000.00        1.530000              REACH 000002
         1         3         1    1.535000        92000.00        1.530000              REACH 000003
         1         4         1    1.535000        92000.00        1.530000              REACH 000004
         1         5         1    1.535000        92000.00        1.530000              REACH 000005
         1         6         1    1.535000        92000.00        1.530000              REACH 000006
         1         2         2    1.193132        2926.737       0.3048000              REACH 000007
         1         2         3    1.193132        2951.485       0.3048000              REACH 000008
         1         4         2    1.193132        2757.264       0.3048000              REACH 000009
         1         4         3    1.193132        3707.416       0.3048000              REACH 000010
         1         3         3    1.193132        829.1394       0.3048000              REACH 000011
         1         3         3    1.193132        2072.848       0.3048000              REACH 000012
         1         3         3    1.193132        1243.709       0.3048000              REACH 000013
         1         3         4    1.193132        3096.990       0.3048000              REACH 000014
         1         3         5   0.9791923        1858.061       0.3048000              REACH 000015
         1         4         5   0.9791923        1858.061       0.3048000              REACH 000016
         1         5         5   0.5002243        1266.404       0.2000000              REACH 000017
         2         5         5   0.5002243        187.9618       0.2000000              REACH 000017
         1         5         6   0.5002243        2912.666       0.1500000              REACH 000018
         2         5         6   0.5002243        2631.181       0.1500000              REACH 000018
         1         6         5   0.7002746        364.8500       0.3048000              REACH 000019
        21         0          STRESS PERIOD     6 TIME STEP     6 SWR1 TIME STEP    24 TOTIM   6.00    
         1         1         1    1.535000        92000.00        1.530000              REACH 000001
         1         2         1    1.535000        92000.00        1.530000              REACH 000002
         1         3         1    1.535000        92000.00        1.530000              REACH 000003
         1         4         1    1.535000        92000.00        1.530000              REACH 000004
         1         5         1    1.535000        92000.00        1.530000              REACH 000005
         1         6         1    1.535000        92000.00        1.530000              REACH 000006
         1         2         2    1.184071        2926.737       0.3048000              REACH 000007
         1         2         3    1.184071        2951.485       0.3048000              REACH 000008
         1         4         2    1.184071        2757.264       0.3048000              REACH 000009
         1         4         3    1.184071        3707.416       0.3048000              REACH 000010
         1         3         3    1.184071        829.1394       0.3048000              REACH 000011
         1         3         3    1.184071        2072.848       0.3048000              REACH 000012
         1         3         3    1.184071        1243.709       0.3048000              REACH 000013
         1         3         4    1.184071        3096.990       0.3048000              REACH 000014
         1         3         5   0.9750179        1858.061       0.3048000              REACH 000015
         1         4         5   0.9750179        1858.061       0.3048000              REACH 000016
         1         5         5   0.5001341        1266.404       0.2000000              REACH 000017
         2         5         5   0.5001341        187.9618       0.2000000              REACH 000017
         1         5         6   0.5001341        2912.666       0.1500000              REACH 000018
         2         5         6   0.5001341        2631.181       0.1500000              REACH 000018
         1         6         5   0.7002336        364.8500       0.3048000              REACH 000019
        21         0          STRESS PERIOD     7 TIME STEP     6 SWR1 TIME STEP    24 TOTIM   7.00    
         1         1         1    1.536000        92000.00        1.530000              REACH 000001
         1         2         1    1.536000        92000.00        1.530000              REACH 000002
         1         3         1    1.536000        92000.00        1.530000              REACH 000003
         1         4         1    1.536000        92000.00        1.530000              REACH 000004
         1         5         1    1.536000        92000.00        1.530000              REACH 000005
         1         6         1    1.536000        92000.00        1.530000              REACH 000006
         1         2         2    1.184564        2926.737       0.3048000              REACH 000007
         1         2         3    1.184564        2951.485       0.3048000              REACH 000008
         1         4         2    1.184564        2757.264       0.3048000              REACH 000009
         1         4         3    1.184564        3707.416       0.3048000              REACH 000010
         1         3         3    1.184564        829.1394       0.3048000              REACH 000011
         1         3         3    1.184564        2072.848       0.3048000              REACH 000012
         1         3         3    1.184564        1243.709       0.3048000              REACH 000013
         1         3         4    1.184564        3096.990       0.3048000              REACH 000014
         1         3         5   0.9712219        1858.061       0.3048000              REACH 000015
         1         4         5   0.9712219        1858.061       0.3048000              REACH 000016
         1         5         5   0.5000616        1266.404       0.2000000              REACH 000017
         2         5         5   0.5000616        187.9618       0.2000000              REACH 000017
         1         5         6   0.5000616        2912.666       0.1500000              REACH 000018
         2         5         6   0.5000616        2631.181       0.1500000              REACH 000018
         1         6         5   0.7001913        364.8500       0.3048000              REACH 000019
        21         0          STRESS PERIOD     8 TIME STEP     6 SWR1 TIME STEP    24 TOTIM   8.00    
         1         1         1    1.535000        92000.00        1.530000              REACH 000001
         1         2         1    1.535000        92000.00        1.530000              REACH 000002
         1         3         1    1.535000        92000.00        1.530000              REACH 000003
         1         4         1    1.535000        92000.00        1.530000              REACH 000004
         1         5         1    1.535000        92000.00        1.530000              REACH 000005
         1         6         1    1.535000        92000.00        1.530000              REACH 000006
         1         2         2    1.175277        2926.737       0.3048000              REACH 000007
         1         2         3    1.175277        2951.485       0.3048000              REACH 000008
         1         4         2    1.175277        2757.264       0.3048000              REACH 000009
         1         4         3    1.175277        3707.416       0.3048000              REACH 000010
         1         3         3    1.175277        829.1394       0.3048000              REACH 000011
         1         3         3    1.175277        2072.848       0.3048000              REACH 000012
         1         3         3    1.175277        1243.709       0.3048000              REACH 000013
         1         3         4    1.175277        3096.990       0.3048000              REACH 000014
         1         3         5   0.9670429        1858.061       0.3048000              REACH 000015
         1         4         5   0.9670429        1858.061       0.3048000              REACH 000016
         1         5         5   0.4996089        1266.404       0.2000000              REACH 000017
         2         5         5   0.4996089        187.9618       0.2000000              REACH 000017
         1         5         6   0.4996089        2912.666       0.1500000              REACH 000018
         2         5         6   0.4996089        2631.181       0.1500000              REACH 000018
         1         6         5   0.7001456        364.8500       0.3048000              REACH 000019
        21         0          STRESS PERIOD     9 TIME STEP     6 SWR1 TIME STEP    24 TOTIM   9.00    
         1         1         1    1.535000        92000.00        1.530000              REACH 000001
         1         2         1    1.535000        92000.00        1.530000              REACH 000002
         1         3         1    1.535000        92000.00        1.530000              REACH 000003
         1         4         1    1.535000        92000.00        1.530000              REACH 000004
         1         5         1    1.535000        92000.00        1.530000              REACH 000005
         1         6         1    1.535000        92000.00        1.530000              REACH 000006
         1         2         2    1.166694        2926.737       0.3048000              REACH 000007
         1         2         3    1.166694        2951.485       0.3048000              REACH 000008
         1         4         2    1.166694        2757.264       0.3048000              REACH 000009
         1         4         3    1.166694        3707.416       0.3048000              REACH 000010
         1         3         3    1.166694        829.1394       0.3048000              REACH 000011
         1         3         3    1.166694        2072.848       0.3048000              REACH 000012
         1         3         3    1.166694        1243.709       0.3048000              REACH 000013
         1         3         4    1.166694        3096.990       0.3048000              REACH 000014
         1         3         5   0.9628625        1858.061       0.3048000              REACH 000015
         1         4         5   0.9628625        1858.061       0.3048000              REACH 000016
         1         5         5   0.4990611        1266.404       0.2000000              REACH 000017
         2         5         5   0.4990611        187.9618       0.2000000              REACH 000017
         1         5         6   0.4990611        2912.666       0.1500000              REACH 000018
         2         5         6   0.4990611        2631.181       0.1500000              REACH 000018
         1         6         5   0.7000959        364.8500       0.3048000              REACH 000019
        21         0          STRESS PERIOD    10 TIME STEP     6 SWR1 TIME STEP    24 TOTIM   10.0    
         1         1         1    1.535000        92000.00        1.530000              REACH 000001
         1         2         1    1.535000        92000.00        1.530000              REACH 000002
         1         3         1    1.535000        92000.00        1.530000              REACH 000003
         1         4         1    1.535000        92000.00        1.530000              REACH 000004
         1         5         1    1.535000        92000.00        1.530000              REACH 000005
         1         6         1    1.535000        92000.00        1.530000              REACH 000006
         1         2         2    1.158619        2926.737       0.3048000              REACH 000007
         1         2         3    1.158619        2951.485       0.3048000              REACH 000008
         1         4         2    1.158619        2757.264       0.3048000              REACH 000009
         1         4         3    1.158619        3707.416       0.3048000              REACH 000010
         1         3         3    1.158619        829.1394       0.3048000              REACH 000011
         1         3         3    1.158619        2072.848       0.3048000              REACH 000012
         1         3         3    1.158619        1243.709       0.3048000              REACH 000013
         1         3         4    1.158619        3096.990       0.3048000              REACH 000014
         1         3         5   0.9586820        1858.061       0.3048000              REACH 000015
         1         4         5   0.9586820        1858.061       0.3048000              REACH 000016
         1         5         5   0.4982009        1266.404       0.2000000              REACH 000017
         2         5         5   0.4982009        187.9618       0.2000000              REACH 000017
         1         5         6   0.4982009        2912.666       0.1500000              REACH 000018
         2         5         6   0.4982009        2631.181       0.1500000              REACH 000018
         1         6         5   0.7000347        364.8500       0.3048000              REACH 000019
        21         0          STRESS PERIOD    11 TIME STEP     6 SWR1 TIME STEP    24 TOTIM   11.0    
         1         1         1    1.535000        92000.00        1.530000              REACH 000001
         1         2         1    1.535000        92000.00        1.530000              REACH 000002
         1         3         1    1.535000        92000.00        1.530000              REACH 000003
         1         4         1    1.535000        92000.00        1.530000              REACH 000004
         1         5         1    1.535000        92000.00        1.530000              REACH 000005
         1         6         1    1.535000        92000.00        1.530000              REACH 000006
         1         2         2    1.150906        2926.737       0.3048000              REACH 000007
         1         2         3    1.150906        2951.485       0.3048000              REACH 000008
         1         4         2    1.150906        2757.264       0.3048000              REACH 000009
         1         4         3    1.150906        3707.416       0.3048000              REACH 000010
         1         3         3    1.150906        829.1394       0.3048000              REACH 000011
         1         3         3    1.150906        2072.848       0.3048000              REACH 000012
         1         3         3    1.150906        1243.709       0.3048000              REACH 000013
         1         3         4    1.150906        3096.990       0.3048000              REACH 000014
         1         3         5   0.9545012        1858.061       0.3048000              REACH 000015
         1         4         5   0.9545012        1858.061       0.3048000              REACH 000016
         1         5         5   0.4969923        1266.404       0.2000000              REACH 000017
         2         5         5   0.4969923        187.9618       0.2000000              REACH 000017
         1         5         6   0.4969923        2912.666       0.1500000              REACH 000018
         2         5         6   0.4969923        2631.181       0.1500000              REACH 000018
         1         6         5   0.6998366        364.8500       0.3048000              REACH 000019
        21         0          STRESS PERIOD    12 TIME STEP     6 SWR1 TIME STEP    24 TOTIM   12.0    
         1         1         1    1.535000        92000.00        1.530000              REACH 000001
         1         2         1    1.535000        92000.00        1.530000              REACH 000002
         1         3         1    1.535000        92000.00        1.530000              REACH 000003
         1         4         1    1.535000        92000.00        1.530000              REACH 000004
         1         5         1    1.535000        92000.00        1.530000              REACH 000005
         1         6         1    1.535000        92000.00        1.530000              REACH 000006
         1         2         2    1.143508        2926.737       0.3048000              REACH 000007
         1         2         3    1.143508        2951.485       0.3048000              REACH 000008
         1         4         2    1.143508        2757.264       0.3048000              REACH 000009
         1         4         3    1.143508        3707.416       0.3048000              REACH 000010
         1         3         3    1.143508        829.1394       0.3048000              REACH 000011
         1         3         3    1.143508        2072.848       0.3048000              REACH 000012
         1         3         3    1.143508        1243.709       0.3048000              REACH 000013
         1         3         4    1.143508        3096.990       0.3048000              REACH 000014
         1         3         5   0.9503207        1858.061       0.3048000              REACH 000015
         1         4         5   0.9503207        1858.061       0.3048000              REACH 000016
         1         5         5   0.4960145        1266.404       0.2000000              REACH 000017
         2         5         5   0.4960145        187.9618       0.2000000              REACH 000017
         1         5         6   0.4960145        2912.666       0.1500000              REACH 000018
         2         5         6   0.4960145        2631.181       0.1500000              REACH 000018
         1         6         5   0.6991547        364.8500       0.3048000              REACH 000019
        21         0          STRESS PERIOD    13 TIME STEP     6 SWR1 TIME STEP    24 TOTIM   13.0    
         1         1         1    1.535000        92000.00        1.530000              REACH 000001
         1         2         1    1.535000        92000.00        1.530000              REACH 000002
         1         3         1    1.535000        92000.00        1.530000              REACH 000003
         1         4         1    1.535000        92000.00        1.530000              REACH 000004
         1         5         1    1.535000        92000.00        1.530000              REACH 000005
         1         6         1    1.535000        92000.00        1.530000              REACH 000006
         1         2         2    1.136383        2926.737       0.3048000              REACH 000007
         1         2         3    1.136383        2951.485       0.3048000              REACH 000008
         1         4         2    1.136383        2757.264       0.3048000              REACH 000009
         1         4         3    1.136383        3707.416       0.3048000              REACH 000010
         1         3         3    1.136383        829.1394       0.3048000              REACH 000011
         1         3         3    1.136383        2072.848       0.3048000              REACH 000012
         1         3         3    1.136383        1243.709       0.3048000              REACH 000013
         1         3         4    1.136383        3096.990       0.3048000              REACH 000014
         1         3         5   0.9461412        1858.061       0.3048000              REACH 000015
         1         4         5   0.9461412        1858.061       0.3048000              REACH 000016
         1         5         5   0.4950919        1266.404       0.2000000              REACH 000017
         2         5         5   0.4950919        187.9618       0.2000000              REACH 000017
         1         5         6   0.4950919        2912.666       0.1500000              REACH 000018
         2         5         6   0.4950919        2631.181       0.1500000              REACH 000018
         1         6         5   0.6980577        364.8500       0.3048000              REACH 000019
        21         0          STRESS PERIOD    14 TIME STEP     6 SWR1 TIME STEP    24 TOTIM   14.0    
         1         1         1    1.535000        92000.00        1.530000              REACH 000001
         1         2         1    1.535000        92000.00        1.530000              REACH 000002
         1         3         1    1.535000        92000.00        1.530000              REACH 000003
         1         4         1    1.535000        92000.00        1.530000              REACH 000004
         1         5         1    1.535000        92000.00        1.530000              REACH 000005
         1         6         1    1.535000        92000.00        1.530000              REACH 000006
         1         2         2    1.129498        2926.737       0.3048000              REACH 000007
         1         2         3    1.129498        2951.485       0.3048000              REACH 000008
         1         4         2    1.129498        2757.264       0.3048000              REACH 000009