#MODFLOW RIV PACKAGE CREATED BY SWR1
        22         0
        21         0          STRESS PERIOD     1 TIME STEP     6 SWR1 TIME STEP    24 TOTIM   1.00    
         1         1         1    1.537000        92000.00        1.530000              REACH 000001
         1         2         1    1.537000        92000.00        1.530000              REACH 000002
         1         3         1    1.537000        92000.00        1.530000              REACH 000003
         1         4         1    1.537000        92000.00        1.530000              REACH 000004
         1         5         1    1.537000        92000.00        1.530000              REACH 000005
         1         6         1    1.537000        92000.00        1.530000              REACH 000006
         1         2         2    1.230875        2926.737       0.3048000              REACH 000007
         1         2         3    1.230875        2951.485       0.3048000              REACH 000008
         1         4         2    1.230875        2757.264       0.3048000              REACH 000009
         1         4         3    1.230875        3707.416       0.3048000              REACH 000010
         1         3         3    1.230875        829.1394       0.3048000              REACH 000011
         1         3         3    1.230875        2072.848       0.3048000              REACH 000012
         1         3         3    1.230875        1243.709       0.3048000              REACH 000013
         1         3         4    1.230875        3096.990       0.3048000              REACH 000014
         1         3         5   0.9958359        1858.061       0.3048000              REACH 000015
         1         4         5   0.9958359        1858.061       0.3048000              REACH 000016
         1         5         5   0.5006891        1266.404       0.2000000              REACH 000017
         2         5         5   0.5006891        187.9618       0.2000000              REACH 000017
         1         5         6   0.5006885        2912.666       0.1500000              REACH 000018
         2         5         6   0.5006885        2631.181       0.1500000              REACH 000018
         1         6         5   0.7004278        364.8500       0.3048000              REACH 000019
        21         0          STRESS PERIOD     2 TIME STEP     6 SWR1 TIME STEP    24 TOTIM   2.00    
         1         1         1    1.536000        92000.00        1.530000              REACH 000001
         1         2         1    1.536000        92000.00        1.530000              REACH 000002
         1         3         1    1.536000        92000.00        1.530000              REACH 000003
         1         4         1    1.536000        92000.00        1.530000              REACH 000004
         1         5         1    1.536000        92000.00        1.530000              REACH 000005
         1         6         1    1.536000        92000.00        1.530000              REACH 000006
         1         2         2    1.225934        2926.737       0.3048000              REACH 000007
         1         2         3    1.225934        2951.485       0.3048000              REACH 000008
         1         4         2    1.225934        2757.264       0.3048000              REACH 000009
         1         4         3    1.225934        3707.416       0.3048000              REACH 000010
         1         3         3    1.225934        829.1394       0.3048000              REACH 000011
         1         3         3    1.225934        2072.848       0.3048000              REACH 000012
         1         3         3    1.225934        1243.709       0.3048000              REACH 000013
         1         3         4    1.225934        3096.990       0.3048000              REACH 000014
         1         3         5   0.9916796        1858.061       0.3048000              REACH 000015
         1         4         5   0.9916796        1858.061       0.3048000              REACH 000016
         1         5         5   0.5005710        1266.404       0.2000000              REACH 000017
         2         5         5   0.5005710        187.9618       0.2000000              REACH 000017
         1         5         6   0.5005706        2912.666       0.1500000              REACH 000018
         2         5         6   0.5005706        2631.181       0.1500000              REACH 000018
         1         6         5   0.7003961        364.8500       0.3048000              REACH 000019
        21         0          STRESS PERIOD     3 TIME STEP     6 SWR1 TIME STEP    24 TOTIM   3.00    
         1         1         1    1.535000        92000.00        1.530000              REACH 000001
         1         2         1    1.535000        92000.00        1.530000              REACH 000002
         1         3         1    1.535000        92000.00        1.530000              REACH 000003
         1         4         1    1.535000        92000.00        1.530000              REACH 000004
         1         5         1    1.535000        92000.00        1.530000              REACH 000005
         1         6         1    1.535000        92000.00        1.530000              REACH 000006
         1         2         2    1.213619        2926.737       0.3048000              REACH 000007
         1         2         3    1.213619        2951.485       0.3048000              REACH 000008
         1         4         2    1.213619        2757.264       0.3048000              REACH 000009
         1         4         3    1.213619        3707.416       0.3048000              REACH 000010
         1         3         3    1.213619        829.1394       0.3048000              REACH 000011
         1         3         3    1.213619        2072.848       0.3048000              REACH 000012
         1         3         3    1.213619        1243.709       0.3048000              REACH 000013
         1         3         4    1.213619        3096.990       0.3048000              REACH 000014
         1         3         5   0.9875179        1858.061       0.3048000              REACH 000015
         1         4         5   0.9875179        1858.061       0.3048000              REACH 000016
         1         5         5   0.5004195        1266.404       0.2000000              REACH 000017
         2         5         5   0.5004195        187.9618       0.2000000              REACH 000017
         1         5         6   0.5004192        2912.666       0.1500000              REACH 000018
         2         5         6   0.5004192        2631.181       0.1500000              REACH 000018
         1         6         5   0.7003520        364.8500       0.3048000              REACH 000019
        21         0          STRESS PERIOD     4 TIME STEP     6 SWR1 TIME STEP    24 TOTIM   4.00    
         1         1         1    1.535000        92000.00        1.530000              REACH 000001
         1         2         1    1.535000        92000.00        1.530000              REACH 000002
         1         3         1    1.535000        92000.00        1.530000              REACH 000003
         1         4         1    1.535000        92000.00        1.530000              REACH 000004
         1         5         1    1.535000        92000.00        1.530000              REACH 000005
         1         6         1    1.535000        92000.00        1.530000              REACH 000006
         1         2         2    1.202883        2926.737       0.3048000              REACH 000007
         1         2         3    1.202883        2951.485       0.3048000              REACH 000008
         1         4         2    1.202883        2757.264       0.3048000              REACH 000009
         1         4         3    1.202883        3707.416       0.3048000              REACH 000010
         1         3         3    1.202883        829.1394       0.3048000              REACH 000011
         1         3         3    1.202883        2072.848       0.3048000              REACH 000012
         1         3         3    1.202883        1243.709       0.3048000              REACH 000013
         1         3         4    1.202883        3096.990       0.3048000              REACH 000014
         1         3         5   0.9833495        1858.061       0.3048000              REACH 000015
         1         4         5   0.9833495        1858.061       0.3048000              REACH 000016
         1         5         5   0.5003096        1266.404       0.2000000              REACH 000017
         2         5         5   0.5003096        187.9618       0.2000000              REACH 000017
         1         5         6   0.5003095        2912.666       0.1500000              REACH 000018
         2         5         6   0.5003095        2631.181       0.1500000              REACH 000018
         1         6         5   0.7003123        364.8500       0.3048000              REACH 000019
        21         0          STRESS PERIOD     5 TIME STEP     6 SWR1 TIME STEP    24 TOTIM   5.00    
         1         1         1    1.535000        92000.00        1.530000              REACH 000001
         1         2         1    1.535000        92000.00        1.530000              REACH 000002
         1         3         1    1.535000        92000.00        1.530000              REACH 000003
         1         4         1    1.535000        92000.00        1.530000              REACH 000004
         1         5         1    1.535000        92000.00        1.530000              REACH 000005
         1         6         1    1.535000        92000.00        1.530000              REACH 000006
         1         2         2    1.193127        2926.737       0.3048000              REACH 000007
         1         2         3    1.193127        2951.485       0.3048000              REACH 000008
         1         4         2    1.193127        2757.264       0.3048000              REACH 000009
         1         4         3    1.193127        3707.416       0.3048000              REACH 000010
         1         3         3    1.193127        829.1394       0.3048000              REACH 000011
         1         3         3    1.193127        2072.848       0.3048000              REACH 000012
         1         3         3    1.193127        1243.709       0.3048000              REACH 000013
         1         3         4    1.193127        3096.990       0.3048000              REACH 000014
         1         3         5   0.9791754        1858.061       0.3048000              REACH 000015
         1         4         5   0.9791754        1858.061       0.3048000              REACH 000016
         1         5         5   0.5002138        1266.404       0.2000000              REACH 000017
         2         5         5   0.5002138        187.9618       0.2000000              REACH 000017
         1         5         6   0.5002138        2912.666       0.1500000              REACH 000018
         2         5         6   0.5002138        2631.181       0.1500000              REACH 000018
         1         6         5   0.7002720        364.8500       0.3048000              REACH 000019
        21         0          STRESS PERIOD     6 TIME STEP     6 SWR1 TIME STEP    24 TOTIM   6.00    
         1         1         1    1.535000        92000.00        1.530000              REACH 000001
         1         2         1    1.535000        92000.00        1.530000              REACH 000002
         1         3         1    1.535000        92000.00        1.530000              REACH 000003
         1         4         1    1.535000        92000.00        1.530000              REACH 000004
         1         5         1    1.535000        92000.00        1.530000              REACH 000005
         1         6         1    1.535000        92000.00        1.530000              REACH 000006
         1         2         2    1.184064        2926.737       0.3048000              REACH 000007
         1         2         3    1.184064        2951.485       0.3048000              REACH 000008
         1         4         2    1.184064        2757.264       0.3048000              REACH 000009
         1         4         3    1.184064        3707.416       0.3048000              REACH 000010
         1         3         3    1.184064        829.1394       0.3048000              REACH 000011
         1         3         3    1.184064        2072.848       0.3048000              REACH 000012
         1         3         3    1.184064        1243.709       0.3048000              REACH 000013
         1         3         4    1.184064        3096.990       0.3048000              REACH 000014
         1         3         5   0.9749973        1858.061       0.3048000              REACH 000015
         1         4         5   0.9749973        1858.061       0.3048000              REACH 000016
         1         5         5   0.5001010        1266.404       0.2000000              REACH 000017
         2         5         5   0.5001010        187.9618       0.2000000              REACH 000017
         1         5         6   0.5001010        2912.666       0.1500000              REACH 000018
         2         5         6   0.5001010        2631.181       0.1500000              REACH 000018
         1         6         5   0.7002303        364.8500       0.3048000              REACH 000019
        21         0          STRESS PERIOD     7 TIME STEP     6 SWR1 TIME STEP    24 TOTIM   7.00    
         1         1         1    1.536000        92000.00        1.530000              REACH 000001
         1         2         1    1.536000        92000.00        1.530000              REACH 000002
         1         3         1    1.536000        92000.00        1.530000              REACH 000003
         1         4         1    1.536000        92000.00        1.530000              REACH 000004
         1         5         1    1.536000        92000.00        1.530000              REACH 000005
         1         6         1    1.536000        92000.00        1.530000              REACH 000006
         1         2         2    1.184559        2926.737       0.3048000              REACH 000007
         1         2         3    1.184559        2951.485       0.3048000              REACH 000008
         1         4         2    1.184559        2757.264       0.3048000              REACH 000009
         1         4         3    1.184559        3707.416       0.3048000              REACH 000010
         1         3         3    1.184559        829.1394       0.3048000              REACH 000011
         1         3         3    1.184559        2072.848       0.3048000              REACH 000012
         1         3         3    1.184559        1243.709       0.3048000              REACH 000013
         1         3         4    1.184559        3096.990       0.3048000              REACH 000014
         1         3         5   0.9711978        1858.061       0.3048000              REACH 000015
         1         4         5   0.9711978        1858.061       0.3048000              REACH 000016
         1         5         5   0.4998657        1266.404       0.2000000              REACH 000017
         2         5         5   0.4998657        187.9618       0.2000000              REACH 000017
         1         5         6   0.4998657        2912.666       0.1500000              REACH 000018
         2         5         6   0.4998657        2631.181       0.1500000              REACH 000018
         1         6         5   0.7001897        364.8500       0.3048000              REACH 000019
        21         0          STRESS PERIOD     8 TIME STEP     6 SWR1 TIME STEP    24 TOTIM   8.00    
         1         1         1    1.535000        92000.00        1.530000              REACH 000001
         1         2         1    1.535000        92000.00        1.530000              REACH 000002
         1         3         1    1.535000        92000.00        1.530000              REACH 000003
         1         4         1    1.535000        92000.00        1.530000              REACH 000004
         1         5         1    1.535000        92000.00        1.530000              REACH 000005
         1         6         1    1.535000        92000.00        1.530000              REACH 000006
         1         2         2    1.175274        2926.737       0.3048000              REACH 000007
         1         2         3    1.175274        2951.485       0.3048000              REACH 000008
         1         4         2    1.175274        2757.264       0.3048000              REACH 000009
         1         4         3    1.175274        3707.416       0.3048000              REACH 000010
         1         3         3    1.175274        829.1394       0.3048000              REACH 000011
         1         3         3    1.175274        2072.848       0.3048000              REACH 000012
         1         3         3    1.175274        1243.709       0.3048000              REACH 000013
         1         3         4    1.175274        3096.990       0.3048000              REACH 000014
         1         3         5   0.9670153        1858.061       0.3048000              REACH 000015
         1         4         5   0.9670153        1858.061       0.3048000              REACH 000016
         1         5         5   0.4993748        1266.404       0.2000000              REACH 000017
         2         5         5   0.4993748        187.9618       0.2000000              REACH 000017
         1         5         6   0.4993748        2912.666       0.1500000              REACH 000018
         2         5         6   0.4993748        2631.181       0.1500000              REACH 000018
         1         6         5   0.7001404        364.8500       0.3048000              REACH 000019
        21         0          STRESS PERIOD     9 TIME STEP     6 SWR1 TIME STEP    24 TOTIM   9.00    
         1         1         1    1.535000        92000.00        1.530000              REACH 000001
         1         2         1    1.535000        92000.00        1.530000              REACH 000002
         1         3         1    1.535000        92000.00        1.530000              REACH 000003
         1         4         1    1.535000        92000.00        1.530000              REACH 000004
         1         5         1    1.535000        92000.00        1.530000              REACH 000005
         1         6         1    1.535000        92000.00        1.530000              REACH 000006
         1         2         2    1.166698        2926.737       0.3048000              REACH 000007
         1         2         3    1.166698        2951.485       0.3048000              REACH 000008
         1         4         2    1.166698        2757.264       0.3048000              REACH 000009
         1         4         3    1.166698        3707.416       0.3048000              REACH 000010
         1         3         3    1.166698        829.1394       0.3048000              REACH 000011
         1         3         3    1.166698        2072.848       0.3048000              REACH 000012
         1         3         3    1.166698        1243.709       0.3048000              REACH 000013
         1         3         4    1.166698        3096.990       0.3048000              REACH 000014
         1         3         5   0.9628312        1858.061       0.3048000              REACH 000015
         1         4         5   0.9628312        1858.061       0.3048000              REACH 000016
         1         5         5   0.4984277        1266.404       0.2000000              REACH 000017
         2         5         5   0.4984277        187.9618       0.2000000              REACH 000017
         1         5         6   0.4984276        2912.666       0.1500000              REACH 000018
         2         5         6   0.4984276        2631.181       0.1500000              REACH 000018
         1         6         5   0.7000886        364.8500       0.3048000              REACH 000019
        21         0          STRESS PERIOD    10 TIME STEP     6 SWR1 TIME STEP    24 TOTIM   10.0    
         1         1         1    1.535000        92000.00        1.530000              REACH 000001
         1         2         1    1.535000        92000.00        1.530000              REACH 000002
         1         3         1    1.535000        92000.00        1.530000              REACH 000003
         1         4         1    1.535000        92000.00        1.530000              REACH 000004
         1         5         1    1.535000        92000.00        1.530000              REACH 000005
         1         6         1    1.535000        92000.00        1.530000              REACH 000006
         1         2         2    1.158630        2926.737       0.3048000              REACH 000007
         1         2         3    1.158630        2951.485       0.3048000              REACH 000008
         1         4         2    1.158630        2757.264       0.3048000              REACH 000009
         1         4         3    1.158630        3707.416       0.3048000              REACH 000010
         1         3         3    1.158630        829.1394       0.3048000              REACH 000011
         1         3         3    1.158630        2072.848       0.3048000              REACH 000012
         1         3         3    1.158630        1243.709       0.3048000              REACH 000013
         1         3         4    1.158630        3096.990       0.3048000              REACH 000014
         1         3         5   0.9586472        1858.061       0.3048000              REACH 000015
         1         4         5   0.9586472        1858.061       0.3048000              REACH 000016
         1         5         5   0.4975838        1266.404       0.2000000              REACH 000017
         2         5         5   0.4975838        187.9618       0.2000000              REACH 000017
         1         5         6   0.4975838        2912.666       0.1500000              REACH 000018
         2         5         6   0.4975838        2631.181       0.1500000              REACH 000018
         1         6         5   0.7000302        364.8500       0.3048000              REACH 000019
        21         0          STRESS PERIOD    11 TIME STEP     6 SWR1 TIME STEP    24 TOTIM   11.0    
         1         1         1    1.535000        92000.00        1.530000              REACH 000001
         1         2         1    1.535000        92000.00        1.530000              REACH 000002
         1         3         1    1.535000        92000.00        1.530000              REACH 000003
         1         4         1    1.535000        92000.00        1.530000              REACH 000004
         1         5         1    1.535000        92000.00        1.530000              REACH 000005
         1         6         1    1.535000        92000.00        1.530000              REACH 000006
         1         2         2    1.150929        2926.737       0.3048000              REACH 000007
         1         2         3    1.150929        2951.485       0.3048000              REACH 000008
         1         4         2    1.150929        2757.264       0.3048000              REACH 000009
         1         4         3    1.150929        3707.416       0.3048000              REACH 000010
         1         3         3    1.150929        829.1394       0.3048000              REACH 000011
         1         3         3    1.150929        2072.848       0.3048000              REACH 000012
         1         3         3    1.150929        1243.709       0.3048000              REACH 000013
         1         3         4    1.150929        3096.990       0.3048000              REACH 000014
         1         3         5   0.9544630        1858.061       0.3048000              REACH 000015
         1         4         5   0.9544630        1858.061       0.3048000              REACH 000016
         1         5         5   0.4963758        1266.404       0.2000000              REACH 000017
         2         5         5   0.4963758        187.9618       0.2000000              REACH 000017
         1         5         6   0.4963758        2912.666       0.1500000              REACH 000018
         2         5         6   0.4963758        2631.181       0.1500000              REACH 000018
         1         6         5   0.6997997        364.8500       0.3048000              REACH 000019
        21         0          STRESS PERIOD    12 TIME STEP     6 SWR1 TIME STEP    24 TOTIM   12.0    
         1         1         1    1.535000        92000.00        1.530000              REACH 000001
         1         2         1    1.535000        92000.00        1.530000              REACH 000002
         1         3         1    1.535000        92000.00        1.530000              REACH 000003
         1         4         1    1.535000        92000.00        1.530000              REACH 000004
         1         5         1    1.535000        92000.00        1.530000              REACH 000005
         1         6         1    1.535000        92000.00        1.530000              REACH 000006
         1         2         2    1.143537        2926.737       0.3048000              REACH 000007
         1         2         3    1.143537        2951.485       0.3048000              REACH 000008
         1         4         2    1.143537        2757.264       0.3048000              REACH 000009
         1         4         3    1.143537        3707.416       0.3048000              REACH 000010
         1         3         3    1.143537        829.1394       0.3048000              REACH 000011
         1         3         3    1.143537        2072.848       0.3048000              REACH 000012
         1         3         3    1.143537        1243.709       0.3048000              REACH 000013
         1         3         4    1.143537        3096.990       0.3048000              REACH 000014
         1         3         5   0.9502788        1858.061       0.3048000              REACH 000015
         1         4         5   0.9502788        1858.061       0.3048000              REACH 000016
         1         5         5   0.4955062        1266.404       0.2000000              REACH 000017
         2         5         5   0.4955062        187.9618       0.2000000              REACH 000017
         1         5         6   0.4955062        2912.666       0.1500000              REACH 000018
         2         5         6   0.4955062        2631.181       0.1500000              REACH 000018
         1         6         5   0.6990730        364.8500       0.3048000              REACH 000019
        21         0          STRESS PERIOD    13 TIME STEP     6 SWR1 TIME STEP    24 TOTIM   13.0    
         1         1         1    1.535000        92000.00        1.530000              REACH 000001
         1         2         1    1.535000        92000.00        1.530000              REACH 000002
         1         3         1    1.535000        92000.00        1.530000              REACH 000003
         1         4         1    1.535000        92000.00        1.530000              REACH 000004
         1         5         1    1.535000        92000.00        1.530000              REACH 000005
         1         6         1    1.535000        92000.00        1.530000              REACH 000006
         1         2         2    1.136416        2926.737       0.3048000              REACH 000007
         1         2         3    1.136416        2951.485       0.3048000              REACH 000008
         1         4         2    1.136416        2757.264       0.3048000              REACH 000009
         1         4         3    1.136416        3707.416       0.3048000              REACH 000010
         1         3         3    1.136416        829.1394       0.3048000              REACH 000011
         1         3         3    1.136416        2072.848       0.3048000              REACH 000012
         1         3         3    1.136416        1243.709       0.3048000              REACH 000013
         1         3         4    1.136416        3096.990       0.3048000              REACH 000014
         1         3         5   0.9460954        1858.061       0.3048000              REACH 000015
         1         4         5   0.9460954        1858.061       0.3048000              REACH 000016
         1         5         5   0.4944623        1266.404       0.2000000              REACH 000017
         2         5         5   0.4944623        187.9618       0.2000000              REACH 000017
         1         5         6   0.4944623        2912.666       0.1500000              REACH 000018
         2         5         6   0.4944623        2631.181       0.1500000              REACH 000018
         1         6         5   0.6979351        364.8500       0.3048000              REACH 000019
        21         0          STRESS PERIOD    14 TIME STEP     6 SWR1 TIME STEP    24 TOTIM   14.0    
         1         1         1    1.535000        92000.00        1.530000              REACH 000001
         1         2         1    1.535000        92000.00        1.530000              REACH 000002
         1         3         1    1.535000        92000.00        1.530000              REACH 000003
         1         4         1    1.535000        92000.00        1.530000              REACH 000004
         1         5         1    1.535000        92000.00        1.530000              REACH 000005
         1         6         1    1.535000        92000.00        1.530000              REACH 000006
         1         2         2    1.129536        2926.737       0.3048000              REACH 000007
         1         2         3    1.129536        2951.485       0.3048000              REACH 000008
         1         4         2    1.129536        2757.264       0.3048000              REACH 000009