#MODFLOW RIV PACKAGE CREATED BY SWR1
        22         0
        21         0          STRESS PERIOD     1 TIME STEP     6 SWR1 TIME STEP    24 TOTIM   1.00    
         1         1         1    1.537000        92000.00        1.530000              REACH 000001
         1         2         1    1.537000        92000.00        1.530000              REACH 000002
         1         3         1    1.537000        92000.00        1.530000              REACH 000003
         1         4         1    1.537000        92000.00        1.530000              REACH 000004
         1         5         1    1.537000        92000.00        1.530000              REACH 000005
         1         6         1    1.537000        92000.00        1.530000              REACH 000006
         1         2         2    1.230875        2926.737       0.3048000              REACH 000007
         1         2         3    1.230875        2951.485       0.3048000              REACH 000008
         1         4         2    1.230875        2757.264       0.3048000              REACH 000009
         1         4         3    1.230875        3707.416       0.3048000              REACH 000010
         1         3         3    1.230875        829.1394       0.3048000              REACH 000011
         1         3         3    1.230875        2072.848       0.3048000              REACH 000012
         1         3         3    1.230875        1243.709       0.3048000              REACH 000013
         1         3         4    1.230875        3096.990       0.3048000              REACH 000014
         1         3         5   0.9958359        1858.061       0.3048000              REACH 000015
         1         4         5   0.9958359        1858.061       0.3048000              REACH 000016
         1         5         5   0.5006914        1266.404       0.2000000              REACH 000017
         2         5         5   0.5006914        187.9618       0.2000000              REACH 000017
         1         5         6   0.5006908        2912.666       0.1500000              REACH 000018
         2         5         6   0.5006908        2631.181       0.1500000              REACH 000018
         1         6         5   0.7004271        364.8500       0.3048000              REACH 000019
        21         0          STRESS PERIOD     2 TIME STEP     6 SWR1 TIME STEP    24 TOTIM   2.00    
         1         1         1    1.536000        92000.00        1.530000              REACH 000001
         1         2         1    1.536000        92000.00        1.530000              REACH 000002
         1         3         1    1.536000        92000.00        1.530000              REACH 000003
         1         4         1    1.536000        92000.00        1.530000              REACH 000004
         1         5         1    1.536000        92000.00        1.530000              REACH 000005
         1         6         1    1.536000        92000.00        1.530000              REACH 000006
         1         2         2    1.225934        2926.737       0.3048000              REACH 000007
         1         2         3    1.225934        2951.485       0.3048000              REACH 000008
         1         4         2    1.225934        2757.264       0.3048000              REACH 000009
         1         4         3    1.225934        3707.416       0.3048000              REACH 000010
         1         3         3    1.225934        829.1394       0.3048000              REACH 000011
         1         3         3    1.225934        2072.848       0.3048000              REACH 000012
         1         3         3    1.225934        1243.709       0.3048000              REACH 000013
         1         3         4    1.225934        3096.990       0.3048000              REACH 000014
         1         3         5   0.9916798        1858.061       0.3048000              REACH 000015
         1         4         5   0.9916798        1858.061       0.3048000              REACH 000016
         1         5         5   0.5005707        1266.404       0.2000000              REACH 000017
         2         5         5   0.5005707        187.9618       0.2000000              REACH 000017
         1         5         6   0.5005703        2912.666       0.1500000              REACH 000018
         2         5         6   0.5005703        2631.181       0.1500000              REACH 000018
         1         6         5   0.7003973        364.8500       0.3048000              REACH 000019
        21         0          STRESS PERIOD     3 TIME STEP     6 SWR1 TIME STEP    24 TOTIM   3.00    
         1         1         1    1.535000        92000.00        1.530000              REACH 000001
         1         2         1    1.535000        92000.00        1.530000              REACH 000002
         1         3         1    1.535000        92000.00        1.530000              REACH 000003
         1         4         1    1.535000        92000.00        1.530000              REACH 000004
         1         5         1    1.535000        92000.00        1.530000              REACH 000005
         1         6         1    1.535000        92000.00        1.530000              REACH 000006
         1         2         2    1.213618        2926.737       0.3048000              REACH 000007
         1         2         3    1.213618        2951.485       0.3048000              REACH 000008
         1         4         2    1.213618        2757.264       0.3048000              REACH 000009
         1         4         3    1.213618        3707.416       0.3048000              REACH 000010
         1         3         3    1.213618        829.1394       0.3048000              REACH 000011
         1         3         3    1.213618        2072.848       0.3048000              REACH 000012
         1         3         3    1.213618        1243.709       0.3048000              REACH 000013
         1         3         4    1.213618        3096.990       0.3048000              REACH 000014
         1         3         5   0.9875183        1858.061       0.3048000              REACH 000015
         1         4         5   0.9875183        1858.061       0.3048000              REACH 000016
         1         5         5   0.5004255        1266.404       0.2000000              REACH 000017
         2         5         5   0.5004255        187.9618       0.2000000              REACH 000017
         1         5         6   0.5004253        2912.666       0.1500000              REACH 000018
         2         5         6   0.5004253        2631.181       0.1500000              REACH 000018
         1         6         5   0.7003723        364.8500       0.3048000              REACH 000019
        21         0          STRESS PERIOD     4 TIME STEP     6 SWR1 TIME STEP    24 TOTIM   4.00    
         1         1         1    1.535000        92000.00        1.530000              REACH 000001
         1         2         1    1.535000        92000.00        1.530000              REACH 000002
         1         3         1    1.535000        92000.00        1.530000              REACH 000003
         1         4         1    1.535000        92000.00        1.530000              REACH 000004
         1         5         1    1.535000        92000.00        1.530000              REACH 000005
         1         6         1    1.535000        92000.00        1.530000              REACH 000006
         1         2         2    1.202883        2926.737       0.3048000              REACH 000007
         1         2         3    1.202883        2951.485       0.3048000              REACH 000008
         1         4         2    1.202883        2757.264       0.3048000              REACH 000009
         1         4         3    1.202883        3707.416       0.3048000              REACH 000010
         1         3         3    1.202883        829.1394       0.3048000              REACH 000011
         1         3         3    1.202883        2072.848       0.3048000              REACH 000012
         1         3         3    1.202883        1243.709       0.3048000              REACH 000013
         1         3         4    1.202883        3096.990       0.3048000              REACH 000014
         1         3         5   0.9833499        1858.061       0.3048000              REACH 000015
         1         4         5   0.9833499        1858.061       0.3048000              REACH 000016
         1         5         5   0.5003183        1266.404       0.2000000              REACH 000017
         2         5         5   0.5003183        187.9618       0.2000000              REACH 000017
         1         5         6   0.5003182        2912.666       0.1500000              REACH 000018
         2         5         6   0.5003182        2631.181       0.1500000              REACH 000018
         1         6         5   0.7003142        364.8500       0.3048000              REACH 000019
        21         0          STRESS PERIOD     5 TIME STEP     6 SWR1 TIME STEP    24 TOTIM   5.00    
         1         1         1    1.535000        92000.00        1.530000              REACH 000001
         1         2         1    1.535000        92000.00        1.530000              REACH 000002
         1         3         1    1.535000        92000.00        1.530000              REACH 000003
         1         4         1    1.535000        92000.00        1.530000              REACH 000004
         1         5         1    1.535000        92000.00        1.530000              REACH 000005
         1         6         1    1.535000        92000.00        1.530000              REACH 000006
         1         2         2    1.193126        2926.737       0.3048000              REACH 000007
         1         2         3    1.193126        2951.485       0.3048000              REACH 000008
         1         4         2    1.193126        2757.264       0.3048000              REACH 000009
         1         4         3    1.193126        3707.416       0.3048000              REACH 000010
         1         3         3    1.193126        829.1394       0.3048000              REACH 000011
         1         3         3    1.193126        2072.848       0.3048000              REACH 000012
         1         3         3    1.193126        1243.709       0.3048000              REACH 000013
         1         3         4    1.193126        3096.990       0.3048000              REACH 000014
         1         3         5   0.9791758        1858.061       0.3048000              REACH 000015
         1         4         5   0.9791758        1858.061       0.3048000              REACH 000016
         1         5         5   0.5002028        1266.404       0.2000000              REACH 000017
         2         5         5   0.5002028        187.9618       0.2000000              REACH 000017
         1         5         6   0.5002027        2912.666       0.1500000              REACH 000018
         2         5         6   0.5002027        2631.181       0.1500000              REACH 000018
         1         6         5   0.7002752        364.8500       0.3048000              REACH 000019
        21         0          STRESS PERIOD     6 TIME STEP     6 SWR1 TIME STEP    24 TOTIM   6.00    
         1         1         1    1.535000        92000.00        1.530000              REACH 000001
         1         2         1    1.535000        92000.00        1.530000              REACH 000002
         1         3         1    1.535000        92000.00        1.530000              REACH 000003
         1         4         1    1.535000        92000.00        1.530000              REACH 000004
         1         5         1    1.535000        92000.00        1.530000              REACH 000005
         1         6         1    1.535000        92000.00        1.530000              REACH 000006
         1         2         2    1.184064        2926.737       0.3048000              REACH 000007
         1         2         3    1.184064        2951.485       0.3048000              REACH 000008
         1         4         2    1.184064        2757.264       0.3048000              REACH 000009
         1         4         3    1.184064        3707.416       0.3048000              REACH 000010
         1         3         3    1.184064        829.1394       0.3048000              REACH 000011
         1         3         3    1.184064        2072.848       0.3048000              REACH 000012
         1         3         3    1.184064        1243.709       0.3048000              REACH 000013
         1         3         4    1.184064        3096.990       0.3048000              REACH 000014
         1         3         5   0.9749976        1858.061       0.3048000              REACH 000015
         1         4         5   0.9749976        1858.061       0.3048000              REACH 000016
         1         5         5   0.5001164        1266.404       0.2000000              REACH 000017
         2         5         5   0.5001164        187.9618       0.2000000              REACH 000017
         1         5         6   0.5001164        2912.666       0.1500000              REACH 000018
         2         5         6   0.5001164        2631.181       0.1500000              REACH 000018
         1         6         5   0.7002305        364.8500       0.3048000              REACH 000019
        21         0          STRESS PERIOD     7 TIME STEP     6 SWR1 TIME STEP    24 TOTIM   7.00    
         1         1         1    1.536000        92000.00        1.530000              REACH 000001
         1         2         1    1.536000        92000.00        1.530000              REACH 000002
         1         3         1    1.536000        92000.00        1.530000              REACH 000003
         1         4         1    1.536000        92000.00        1.530000              REACH 000004
         1         5         1    1.536000        92000.00        1.530000              REACH 000005
         1         6         1    1.536000        92000.00        1.530000              REACH 000006
         1         2         2    1.184560        2926.737       0.3048000              REACH 000007
         1         2         3    1.184560        2951.485       0.3048000              REACH 000008
         1         4         2    1.184560        2757.264       0.3048000              REACH 000009
         1         4         3    1.184560        3707.416       0.3048000              REACH 000010
         1         3         3    1.184560        829.1394       0.3048000              REACH 000011
         1         3         3    1.184560        2072.848       0.3048000              REACH 000012
         1         3         3    1.184560        1243.709       0.3048000              REACH 000013
         1         3         4    1.184560        3096.990       0.3048000              REACH 000014
         1         3         5   0.9711983        1858.061       0.3048000              REACH 000015
         1         4         5   0.9711983        1858.061       0.3048000              REACH 000016
         1         5         5   0.4998442        1266.404       0.2000000              REACH 000017
         2         5         5   0.4998442        187.9618       0.2000000              REACH 000017
         1         5         6   0.4998442        2912.666       0.1500000              REACH 000018
         2         5         6   0.4998442        2631.181       0.1500000              REACH 000018
         1         6         5   0.7001892        364.8500       0.3048000              REACH 000019
        21         0          STRESS PERIOD     8 TIME STEP     6 SWR1 TIME STEP    24 TOTIM   8.00    
         1         1         1    1.535000        92000.00        1.530000              REACH 000001
         1         2         1    1.535000        92000.00        1.530000              REACH 000002
         1         3         1    1.535000        92000.00        1.530000              REACH 000003
         1         4         1    1.535000        92000.00        1.530000              REACH 000004
         1         5         1    1.535000        92000.00        1.530000              REACH 000005
         1         6         1    1.535000        92000.00        1.530000              REACH 000006
         1         2         2    1.175273        2926.737       0.3048000              REACH 000007
         1         2         3    1.175273        2951.485       0.3048000              REACH 000008
         1         4         2    1.175273        2757.264       0.3048000              REACH 000009
         1         4         3    1.175273        3707.416       0.3048000              REACH 000010
         1         3         3    1.175273        829.1394       0.3048000              REACH 000011
         1         3         3    1.175273        2072.848       0.3048000              REACH 000012
         1         3         3    1.175273        1243.709       0.3048000              REACH 000013
         1         3         4    1.175273        3096.990       0.3048000              REACH 000014
         1         3         5   0.9670152        1858.061       0.3048000              REACH 000015
         1         4         5   0.9670152        1858.061       0.3048000              REACH 000016
         1         5         5   0.4995905        1266.404       0.2000000              REACH 000017
         2         5         5   0.4995905        187.9618       0.2000000              REACH 000017
         1         5         6   0.4995905        2912.666       0.1500000              REACH 000018
         2         5         6   0.4995905        2631.181       0.1500000              REACH 000018
         1         6         5   0.7001419        364.8500       0.3048000              REACH 000019
        21         0          STRESS PERIOD     9 TIME STEP     6 SWR1 TIME STEP    24 TOTIM   9.00    
         1         1         1    1.535000        92000.00        1.530000              REACH 000001
         1         2         1    1.535000        92000.00        1.530000              REACH 000002
         1         3         1    1.535000        92000.00        1.530000              REACH 000003
         1         4         1    1.535000        92000.00        1.530000              REACH 000004
         1         5         1    1.535000        92000.00        1.530000              REACH 000005
         1         6         1    1.535000        92000.00        1.530000              REACH 000006
         1         2         2    1.166697        2926.737       0.3048000              REACH 000007
         1         2         3    1.166697        2951.485       0.3048000              REACH 000008
         1         4         2    1.166697        2757.264       0.3048000              REACH 000009
         1         4         3    1.166697        3707.416       0.3048000              REACH 000010
         1         3         3    1.166697        829.1394       0.3048000              REACH 000011
         1         3         3    1.166697        2072.848       0.3048000              REACH 000012
         1         3         3    1.166697        1243.709       0.3048000              REACH 000013
         1         3         4    1.166697        3096.990       0.3048000              REACH 000014
         1         3         5   0.9628319        1858.061       0.3048000              REACH 000015
         1         4         5   0.9628319        1858.061       0.3048000              REACH 000016
         1         5         5   0.4989903        1266.404       0.2000000              REACH 000017
         2         5         5   0.4989903        187.9618       0.2000000              REACH 000017
         1         5         6   0.4989903        2912.666       0.1500000              REACH 000018
         2         5         6   0.4989903        2631.181       0.1500000              REACH 000018
         1         6         5   0.7000874        364.8500       0.3048000              REACH 000019
        21         0          STRESS PERIOD    10 TIME STEP     6 SWR1 TIME STEP    24 TOTIM   10.0    
         1         1         1    1.535000        92000.00        1.530000              REACH 000001
         1         2         1    1.535000        92000.00        1.530000              REACH 000002
         1         3         1    1.535000        92000.00        1.530000              REACH 000003
         1         4         1    1.535000        92000.00        1.530000              REACH 000004
         1         5         1    1.535000        92000.00        1.530000              REACH 000005
         1         6         1    1.535000        92000.00        1.530000              REACH 000006
         1         2         2    1.158627        2926.737       0.3048000              REACH 000007
         1         2         3    1.158627        2951.485       0.3048000              REACH 000008
         1         4         2    1.158627        2757.264       0.3048000              REACH 000009
         1         4         3    1.158627        3707.416       0.3048000              REACH 000010
         1         3         3    1.158627        829.1394       0.3048000              REACH 000011
         1         3         3    1.158627        2072.848       0.3048000              REACH 000012
         1         3         3    1.158627        1243.709       0.3048000              REACH 000013
         1         3         4    1.158627        3096.990       0.3048000              REACH 000014
         1         3         5   0.9586480        1858.061       0.3048000              REACH 000015
         1         4         5   0.9586480        1858.061       0.3048000              REACH 000016
         1         5         5   0.4978927        1266.404       0.2000000              REACH 000017
         2         5         5   0.4978927        187.9618       0.2000000              REACH 000017
         1         5         6   0.4978927        2912.666       0.1500000              REACH 000018
         2         5         6   0.4978927        2631.181       0.1500000              REACH 000018
         1         6         5   0.7000291        364.8500       0.3048000              REACH 000019
        21         0          STRESS PERIOD    11 TIME STEP     6 SWR1 TIME STEP    24 TOTIM   11.0    
         1         1         1    1.535000        92000.00        1.530000              REACH 000001
         1         2         1    1.535000        92000.00        1.530000              REACH 000002
         1         3         1    1.535000        92000.00        1.530000              REACH 000003
         1         4         1    1.535000        92000.00        1.530000              REACH 000004
         1         5         1    1.535000        92000.00        1.530000              REACH 000005
         1         6         1    1.535000        92000.00        1.530000              REACH 000006
         1         2         2    1.150926        2926.737       0.3048000              REACH 000007
         1         2         3    1.150926        2951.485       0.3048000              REACH 000008
         1         4         2    1.150926        2757.264       0.3048000              REACH 000009
         1         4         3    1.150926        3707.416       0.3048000              REACH 000010
         1         3         3    1.150926        829.1394       0.3048000              REACH 000011
         1         3         3    1.150926        2072.848       0.3048000              REACH 000012
         1         3         3    1.150926        1243.709       0.3048000              REACH 000013
         1         3         4    1.150926        3096.990       0.3048000              REACH 000014
         1         3         5   0.9544637        1858.061       0.3048000              REACH 000015
         1         4         5   0.9544637        1858.061       0.3048000              REACH 000016
         1         5         5   0.4967592        1266.404       0.2000000              REACH 000017
         2         5         5   0.4967592        187.9618       0.2000000              REACH 000017
         1         5         6   0.4967592        2912.666       0.1500000              REACH 000018
         2         5         6   0.4967592        2631.181       0.1500000              REACH 000018
         1         6         5   0.6997999        364.8500       0.3048000              REACH 000019
        21         0          STRESS PERIOD    12 TIME STEP     6 SWR1 TIME STEP    24 TOTIM   12.0    
         1         1         1    1.535000        92000.00        1.530000              REACH 000001
         1         2         1    1.535000        92000.00        1.530000              REACH 000002
         1         3         1    1.535000        92000.00        1.530000              REACH 000003
         1         4         1    1.535000        92000.00        1.530000              REACH 000004
         1         5         1    1.535000        92000.00        1.530000              REACH 000005
         1         6         1    1.535000        92000.00        1.530000              REACH 000006
         1         2         2    1.143536        2926.737       0.3048000              REACH 000007
         1         2         3    1.143536        2951.485       0.3048000              REACH 000008
         1         4         2    1.143536        2757.264       0.3048000              REACH 000009
         1         4         3    1.143536        3707.416       0.3048000              REACH 000010
         1         3         3    1.143536        829.1394       0.3048000              REACH 000011
         1         3         3    1.143536        2072.848       0.3048000              REACH 000012
         1         3         3    1.143536        1243.709       0.3048000              REACH 000013
         1         3         4    1.143536        3096.990       0.3048000              REACH 000014
         1         3         5   0.9502797        1858.061       0.3048000              REACH 000015
         1         4         5   0.9502797        1858.061       0.3048000              REACH 000016
         1         5         5   0.4957277        1266.404       0.2000000              REACH 000017
         2         5         5   0.4957277        187.9618       0.2000000              REACH 000017
         1         5         6   0.4957277        2912.666       0.1500000              REACH 000018
         2         5         6   0.4957277        2631.181       0.1500000              REACH 000018
         1         6         5   0.6990739        364.8500       0.3048000              REACH 000019
        21         0          STRESS PERIOD    13 TIME STEP     6 SWR1 TIME STEP    24 TOTIM   13.0    
         1         1         1    1.535000        92000.00        1.530000              REACH 000001
         1         2         1    1.535000        92000.00        1.530000              REACH 000002
         1         3         1    1.535000        92000.00        1.530000              REACH 000003
         1         4         1    1.535000        92000.00        1.530000              REACH 000004
         1         5         1    1.535000        92000.00        1.530000              REACH 000005
         1         6         1    1.535000        92000.00        1.530000              REACH 000006
         1         2         2    1.136416        2926.737       0.3048000              REACH 000007
         1         2         3    1.136416        2951.485       0.3048000              REACH 000008
         1         4         2    1.136416        2757.264       0.3048000              REACH 000009
         1         4         3    1.136416        3707.416       0.3048000              REACH 000010
         1         3         3    1.136416        829.1394       0.3048000              REACH 000011
         1         3         3    1.136416        2072.848       0.3048000              REACH 000012
         1         3         3    1.136416        1243.709       0.3048000              REACH 000013
         1         3         4    1.136416        3096.990       0.3048000              REACH 000014
         1         3         5   0.9460964        1858.061       0.3048000              REACH 000015
         1         4         5   0.9460964        1858.061       0.3048000              REACH 000016
         1         5         5   0.4947339        1266.404       0.2000000              REACH 000017
         2         5         5   0.4947339        187.9618       0.2000000              REACH 000017
         1         5         6   0.4947339        2912.666       0.1500000              REACH 000018
         2         5         6   0.4947339        2631.181       0.1500000              REACH 000018
         1         6         5   0.6979365        364.8500       0.3048000              REACH 000019
        21         0          STRESS PERIOD    14 TIME STEP     6 SWR1 TIME STEP    24 TOTIM   14.0    
         1         1         1    1.535000        92000.00        1.530000              REACH 000001
         1         2         1    1.535000        92000.00        1.530000              REACH 000002
         1         3         1    1.535000        92000.00        1.530000              REACH 000003
         1         4         1    1.535000        92000.00        1.530000              REACH 000004
         1         5         1    1.535000        92000.00        1.530000              REACH 000005
         1         6         1    1.535000        92000.00        1.530000              REACH 000006
         1         2         2    1.129536        2926.737       0.3048000              REACH 000007
         1         2         3    1.129536        2951.485       0.3048000              REACH 000008
         1         4         2    1.129536        2757.264       0.3048000              REACH 000009